---- qbsp / ericw-tools v0.18.1 ----
Input file: SinglePlayer01.map
Output file: SinglePlayer01.bsp

---- LoadMapFile ----
*** WARNING 06: No info_player_deathmatch entities in level
          212 faces
           37 brushes
           58 entities
            9 unique texnames
          153 texinfo

Opened WAD: C:/Users/BatGirl/Documents/GameDev/quake-singleplayer-level-design/wads/prototype_1_2.wad
Processing hull 0...
---- Brush_LoadEntity ----
           37 brushes
           85 planes
---- CSGFaces ----
          212 brushfaces
          250 csgfaces
          200 mergedfaces
---- SolidBSP ----
          280 split nodes
          108 solid leafs
          173 empty leafs
            0 water leafs
            0 detail leafs
            0 detail illusionary leafs
            0 detail fence leafs
            0 illusionary visblocker leafs
          548 leaffaces
          483 nodefaces
---- Portalize ----
          173 vis leafs
          173 vis clusters
          467 vis portals
---- FillOutside ----
*** WARNING 10: Reached occupant at (212 76 164), no filling performed.
Leak file written to SinglePlayer01.pts
---- MakeFaceEdges ----
---- GrowRegions ----
Processing hull 1...
*** WARNING 19: No entities in empty space -- no filling performed (hull 1)
Processing hull 2...
*** WARNING 19: No entities in empty space -- no filling performed (hull 2)
---- WriteBSPFile ----
Wrote SinglePlayer01.bsp
          208 planes             4160
          623 vertexes           7476
          280 nodes              6720
           96 texinfo            3840
          483 faces              9660
          490 clipnodes          3920
          174 leafs              4872
          548 marksurfaces       1096
         1901 surfedges          7604
         1298 edges              5192
            9 textures           3460
              lightdata             0
              visdata               0
              entdata            3640

0.154 seconds elapsed
Peak memory usage: 2767704 (2.6M)
