---- qbsp / ericw-tools v0.18.1 ----
Input file: SinglePlayer01.map
Output file: SinglePlayer01.bsp

---- LoadMapFile ----
*** WARNING 06: No info_player_deathmatch entities in level
          200 faces
           35 brushes
           34 entities
            6 unique texnames
          139 texinfo

Opened WAD: C:/Users/BatGirl/Documents/GameDev/quake-singleplayer-level-design/wads/prototype_1_2.wad
Processing hull 0...
---- Brush_LoadEntity ----
           35 brushes
           75 planes
---- CSGFaces ----
          200 brushfaces
          177 csgfaces
          149 mergedfaces
---- SolidBSP ----
          202 split nodes
           76 solid leafs
          127 empty leafs
            0 water leafs
            0 detail leafs
            0 detail illusionary leafs
            0 detail fence leafs
            0 illusionary visblocker leafs
          398 leaffaces
          344 nodefaces
---- Portalize ----
          127 vis leafs
          127 vis clusters
          327 vis portals
---- FillOutside ----
           73 outleafs
---- MergeAll ----
          105 mergefaces
---- SolidBSP ----
           61 split nodes
           32 solid leafs
           30 empty leafs
            0 water leafs
            0 detail leafs
            0 detail illusionary leafs
            0 detail fence leafs
            0 illusionary visblocker leafs
          175 leaffaces
          131 nodefaces
---- Portalize ----
           30 vis leafs
           30 vis clusters
           65 vis portals
---- Tjunc ----
          161 world edges
          489 edge points
          135 edges added by tjunctions
            0 faces added by tjunctions
---- MakeFaceEdges ----
---- GrowRegions ----
Processing hull 1...
*** WARNING 19: No entities in empty space -- no filling performed (hull 1)
Processing hull 2...
*** WARNING 19: No entities in empty space -- no filling performed (hull 2)
---- WriteBSPFile ----
Wrote SinglePlayer01.bsp
          159 planes             3180
          189 vertexes           2268
           61 nodes              1464
           59 texinfo            2360
          131 faces              2620
          403 clipnodes          3224
           31 leafs               868
          175 marksurfaces        350
          642 surfedges          2568
          322 edges              1288
            6 textures           2308
              lightdata             0
              visdata               0
              entdata            2119

0.214 seconds elapsed
Peak memory usage: 1891606 (1.8M)
