---- qbsp / ericw-tools v0.18.1 ----
Input file: SinglePlayer01.map
Output file: SinglePlayer01.bsp

---- LoadMapFile ----
*** WARNING 06: No info_player_deathmatch entities in level
          146 faces
           26 brushes
            4 entities
            2 unique texnames
           94 texinfo

Opened WAD: C:/Users/BatGirl/Documents/GameDev/quake-singleplayer-level-design/wads/prototype_1_2.wad
Processing hull 0...
---- Brush_LoadEntity ----
           26 brushes
           44 planes
---- CSGFaces ----
          146 brushfaces
           94 csgfaces
           85 mergedfaces
---- SolidBSP ----
           88 split nodes
           34 solid leafs
           55 empty leafs
            0 water leafs
            0 detail leafs
            0 detail illusionary leafs
            0 detail fence leafs
            0 illusionary visblocker leafs
          221 leaffaces
          186 nodefaces
---- Portalize ----
           55 vis leafs
           55 vis clusters
          120 vis portals
---- FillOutside ----
           33 outleafs
---- MergeAll ----
           39 mergefaces
---- SolidBSP ----
           31 split nodes
           18 solid leafs
           14 empty leafs
            0 water leafs
            0 detail leafs
            0 detail illusionary leafs
            0 detail fence leafs
            0 illusionary visblocker leafs
           82 leaffaces
           65 nodefaces
---- Portalize ----
           14 vis leafs
           14 vis clusters
           22 vis portals
---- Tjunc ----
           80 world edges
          233 edge points
           53 edges added by tjunctions
            0 faces added by tjunctions
---- MakeFaceEdges ----
---- GrowRegions ----
Processing hull 1...
*** WARNING 19: No entities in empty space -- no filling performed (hull 1)
Processing hull 2...
*** WARNING 19: No entities in empty space -- no filling performed (hull 2)
---- WriteBSPFile ----
Wrote SinglePlayer01.bsp
           94 planes             1880
           88 vertexes           1056
           31 nodes               744
           25 texinfo            1000
           65 faces              1300
          257 clipnodes          2056
           15 leafs               420
           82 marksurfaces        164
          302 surfedges          1208
          152 edges               608
            2 textures            772
              lightdata             0
              visdata               0
              entdata             320

0.122 seconds elapsed
Peak memory usage: 1280908 (1.2M)
