---- qbsp / ericw-tools v0.18.1 ----
Input file: SinglePlayer01.map
Output file: SinglePlayer01.bsp

---- LoadMapFile ----
*** WARNING 06: No info_player_deathmatch entities in level
          194 faces
           34 brushes
           14 entities
            5 unique texnames
          134 texinfo

Opened WAD: C:/Users/BatGirl/Documents/GameDev/quake-singleplayer-level-design/wads/prototype_1_2.wad
Processing hull 0...
---- Brush_LoadEntity ----
           34 brushes
           70 planes
---- CSGFaces ----
          194 brushfaces
          169 csgfaces
          141 mergedfaces
---- SolidBSP ----
          181 split nodes
           69 solid leafs
          113 empty leafs
            0 water leafs
            0 detail leafs
            0 detail illusionary leafs
            0 detail fence leafs
            0 illusionary visblocker leafs
          361 leaffaces
          319 nodefaces
---- Portalize ----
          113 vis leafs
          113 vis clusters
          279 vis portals
---- FillOutside ----
           69 outleafs
---- MergeAll ----
           97 mergefaces
---- SolidBSP ----
           56 split nodes
           31 solid leafs
           26 empty leafs
            0 water leafs
            0 detail leafs
            0 detail illusionary leafs
            0 detail fence leafs
            0 illusionary visblocker leafs
          160 leaffaces
          123 nodefaces
---- Portalize ----
           26 vis leafs
           26 vis clusters
           54 vis portals
---- Tjunc ----
          149 world edges
          457 edge points
          127 edges added by tjunctions
            0 faces added by tjunctions
---- MakeFaceEdges ----
---- GrowRegions ----
Processing hull 1...
*** WARNING 19: No entities in empty space -- no filling performed (hull 1)
Processing hull 2...
*** WARNING 19: No entities in empty space -- no filling performed (hull 2)
---- WriteBSPFile ----
Wrote SinglePlayer01.bsp
          140 planes             2800
          177 vertexes           2124
           56 nodes              1344
           54 texinfo            2160
          123 faces              2460
          346 clipnodes          2768
           27 leafs               756
          160 marksurfaces        320
          602 surfedges          2408
          302 edges              1208
            5 textures           1924
              lightdata             0
              visdata               0
              entdata             910

0.140 seconds elapsed
Peak memory usage: 1704660 (1.6M)
